data_LTA83

_audit_creation_method RASPA-1.0
_audit_creation_date 2022-4-22
_audit_author_name 'zijun.deng@postgrad.manchester.ac.uk'

_cell_length_a    24.4848
_cell_length_b    24.4848
_cell_length_c    24.4848
_cell_angle_alpha 90
_cell_angle_beta  90
_cell_angle_gamma 90

_symmetry_cell_setting          triclinic
_symmetry_space_group_name_Hall 'P 1'
_symmetry_space_group_name_H-M  'P 1'
_symmetry_Int_Tables_number     1

_symmetry_equiv_pos_as_xyz 'x,y,z'

loop_
_atom_site_label
_atom_site_type_symbol
_atom_site_fract_x
_atom_site_fract_y
_atom_site_fract_z
_atom_site_charge
Oal O 0 0.1167 0.25 -1.1427
Oal O 0 0.3833 0.25 -1.1427
Oal O 0.25 0 0.1167 -1.1427
Oal O 0.25 0 0.3833 -1.1427
Oal O 0.1167 0.25 0 -1.1427
Oal O 0.3833 0.25 0 -1.1427
Oal O 0.1167 0 0.25 -1.1427
Oal O 0.3833 0 0.25 -1.1427
Oal O 0 0.25 0.3833 -1.1427
Oal O 0 0.25 0.1167 -1.1427
Oal O 0.25 0.1167 0 -1.1427
Oal O 0.25 0.3833 0 -1.1427
Oal O 0 0.14365 0.14365 -1.1427
Oal O 0 0.35635 0.14365 -1.1427
Oal O 0 0.14365 0.35635 -1.1427
Oal O 0 0.35635 0.35635 -1.1427
Oal O 0.14365 0 0.14365 -1.1427
Oal O 0.14365 0 0.35635 -1.1427
Oal O 0.35635 0 0.14365 -1.1427
Oal O 0.35635 0 0.35635 -1.1427
Oal O 0.14365 0.14365 0 -1.1427
Oal O 0.35635 0.14365 0 -1.1427
Oal O 0.14365 0.35635 0 -1.1427
Oal O 0.35635 0.35635 0 -1.1427
Oal O 0.0558 0.0558 0.17665 -1.1427
Oal O 0.4442 0.4442 0.17665 -1.1427
Oal O 0.4442 0.0558 0.32335 -1.1427
Oal O 0.0558 0.4442 0.32335 -1.1427
Oal O 0.17665 0.0558 0.0558 -1.1427
Oal O 0.17665 0.4442 0.4442 -1.1427
Oal O 0.32335 0.4442 0.0558 -1.1427
Oal O 0.32335 0.0558 0.4442 -1.1427
Oal O 0.0558 0.17665 0.0558 -1.1427
Oal O 0.4442 0.17665 0.4442 -1.1427
Oal O 0.0558 0.32335 0.4442 -1.1427
Oal O 0.4442 0.32335 0.0558 -1.1427
Oal O 0.0558 0.0558 0.32335 -1.1427
Oal O 0.4442 0.4442 0.32335 -1.1427
Oal O 0.0558 0.4442 0.17665 -1.1427
Oal O 0.4442 0.0558 0.17665 -1.1427
Oal O 0.0558 0.17665 0.4442 -1.1427
Oal O 0.4442 0.17665 0.0558 -1.1427
Oal O 0.4442 0.32335 0.4442 -1.1427
Oal O 0.0558 0.32335 0.0558 -1.1427
Oal O 0.17665 0.0558 0.4442 -1.1427
Oal O 0.17665 0.4442 0.0558 -1.1427
Oal O 0.32335 0.0558 0.0558 -1.1427
Oal O 0.32335 0.4442 0.4442 -1.1427
Al Al 0 0.0937 0.18775 1.7906
Si Si 0 0.4063 0.18775 1.8708
Si Si 0 0.0937 0.31225 1.8708
Al Al 0 0.4063 0.31225 1.7906
Al Al 0.18775 0 0.0937 1.7906
Si Si 0.18775 0 0.4063 1.8708
Si Si 0.31225 0 0.0937 1.8708
Al Al 0.31225 0 0.4063 1.7906
Al Al 0.0937 0.18775 0 1.7906
Si Si 0.4063 0.18775 0 1.8708
Si Si 0.0937 0.31225 0 1.8708
Al Al 0.4063 0.31225 0 1.7906
Al Al 0.0937 0 0.31225 1.7906
Si Si 0.4063 0 0.31225 1.8708
Si Si 0.0937 0 0.18775 1.8708
Al Al 0.4063 0 0.18775 1.7906
Al Al 0 0.18775 0.4063 1.7906
Si Si 0 0.18775 0.0937 1.8708
Si Si 0 0.31225 0.4063 1.8708
Al Al 0 0.31225 0.0937 1.7906
Si Si 0.18775 0.0937 0 1.8708
Al Al 0.18775 0.4063 0 1.7906
Al Al 0.31225 0.0937 0 1.7906
Si Si 0.31225 0.4063 0 1.8708
Oal O 0.5 0.1167 0.25 -1.1427
Oal O 0.5 0.3833 0.25 -1.1427
Oal O 0.75 0 0.1167 -1.1427
Oal O 0.75 0 0.3833 -1.1427
Oal O 0.6167 0.25 0 -1.1427
Oal O 0.8833 0.25 0 -1.1427
Oal O 0.6167 0 0.25 -1.1427
Oal O 0.8833 0 0.25 -1.1427
Oal O 0.5 0.25 0.3833 -1.1427
Oal O 0.5 0.25 0.1167 -1.1427
Oal O 0.75 0.1167 0 -1.1427
Oal O 0.75 0.3833 0 -1.1427
Oal O 0.5 0.14365 0.14365 -1.1427
Oal O 0.5 0.35635 0.14365 -1.1427
Oal O 0.5 0.14365 0.35635 -1.1427
Oal O 0.5 0.35635 0.35635 -1.1427
Oal O 0.64365 0 0.14365 -1.1427
Oal O 0.64365 0 0.35635 -1.1427
Oal O 0.85635 0 0.14365 -1.1427
Oal O 0.85635 0 0.35635 -1.1427
Oal O 0.64365 0.14365 0 -1.1427
Oal O 0.85635 0.14365 0 -1.1427
Oal O 0.64365 0.35635 0 -1.1427
Oal O 0.85635 0.35635 0 -1.1427
Oal O 0.5558 0.0558 0.17665 -1.1427
Oal O 0.9442 0.4442 0.17665 -1.1427
Oal O 0.9442 0.0558 0.32335 -1.1427
Oal O 0.5558 0.4442 0.32335 -1.1427
Oal O 0.67665 0.0558 0.0558 -1.1427
Oal O 0.67665 0.4442 0.4442 -1.1427
Oal O 0.82335 0.4442 0.0558 -1.1427
Oal O 0.82335 0.0558 0.4442 -1.1427
Oal O 0.5558 0.17665 0.0558 -1.1427
Oal O 0.9442 0.17665 0.4442 -1.1427
Oal O 0.5558 0.32335 0.4442 -1.1427
Oal O 0.9442 0.32335 0.0558 -1.1427
Oal O 0.5558 0.0558 0.32335 -1.1427
Oal O 0.9442 0.4442 0.32335 -1.1427
Oal O 0.5558 0.4442 0.17665 -1.1427
Oal O 0.9442 0.0558 0.17665 -1.1427
Oal O 0.5558 0.17665 0.4442 -1.1427
Oal O 0.9442 0.17665 0.0558 -1.1427
Oal O 0.9442 0.32335 0.4442 -1.1427
Oal O 0.5558 0.32335 0.0558 -1.1427
Oal O 0.67665 0.0558 0.4442 -1.1427
Oal O 0.67665 0.4442 0.0558 -1.1427
Oal O 0.82335 0.0558 0.0558 -1.1427
Oal O 0.82335 0.4442 0.4442 -1.1427
Si Si 0.5 0.0937 0.18775 1.8708
Al Al 0.5 0.4063 0.18775 1.7906
Al Al 0.5 0.0937 0.31225 1.7906
Si Si 0.5 0.4063 0.31225 1.8708
Si Si 0.68775 0 0.0937 1.8708
Al Al 0.68775 0 0.4063 1.7906
Al Al 0.81225 0 0.0937 1.7906
Si Si 0.81225 0 0.4063 1.8708
Si Si 0.5937 0.18775 0 1.8708
Al Al 0.9063 0.18775 0 1.7906
Al Al 0.5937 0.31225 0 1.7906
Si Si 0.9063 0.31225 0 1.8708
Si Si 0.5937 0 0.31225 1.8708
Al Al 0.9063 0 0.31225 1.7906
Al Al 0.5937 0 0.18775 1.7906
Si Si 0.9063 0 0.18775 1.8708
Si Si 0.5 0.18775 0.4063 1.8708
Al Al 0.5 0.18775 0.0937 1.7906
Al Al 0.5 0.31225 0.4063 1.7906
Si Si 0.5 0.31225 0.0937 1.8708
Al Al 0.68775 0.0937 0 1.7906
Si Si 0.68775 0.4063 0 1.8708
Si Si 0.81225 0.0937 0 1.8708
Al Al 0.81225 0.4063 0 1.7906
Oal O 0 0.6167 0.25 -1.1427
Oal O 0 0.8833 0.25 -1.1427
Oal O 0.25 0.5 0.1167 -1.1427
Oal O 0.25 0.5 0.3833 -1.1427
Oal O 0.1167 0.75 0 -1.1427
Oal O 0.3833 0.75 0 -1.1427
Oal O 0.1167 0.5 0.25 -1.1427
Oal O 0.3833 0.5 0.25 -1.1427
Oal O 0 0.75 0.3833 -1.1427
Oal O 0 0.75 0.1167 -1.1427
Oal O 0.25 0.6167 0 -1.1427
Oal O 0.25 0.8833 0 -1.1427
Oal O 0 0.64365 0.14365 -1.1427
Oal O 0 0.85635 0.14365 -1.1427
Oal O 0 0.64365 0.35635 -1.1427
Oal O 0 0.85635 0.35635 -1.1427
Oal O 0.14365 0.5 0.14365 -1.1427
Oal O 0.14365 0.5 0.35635 -1.1427
Oal O 0.35635 0.5 0.14365 -1.1427
Oal O 0.35635 0.5 0.35635 -1.1427
Oal O 0.14365 0.64365 0 -1.1427
Oal O 0.35635 0.64365 0 -1.1427
Oal O 0.14365 0.85635 0 -1.1427
Oal O 0.35635 0.85635 0 -1.1427
Oal O 0.0558 0.5558 0.17665 -1.1427
Oal O 0.4442 0.9442 0.17665 -1.1427
Oal O 0.4442 0.5558 0.32335 -1.1427
Oal O 0.0558 0.9442 0.32335 -1.1427
Oal O 0.17665 0.5558 0.0558 -1.1427
Oal O 0.17665 0.9442 0.4442 -1.1427
Oal O 0.32335 0.9442 0.0558 -1.1427
Oal O 0.32335 0.5558 0.4442 -1.1427
Oal O 0.0558 0.67665 0.0558 -1.1427
Oal O 0.4442 0.67665 0.4442 -1.1427
Oal O 0.0558 0.82335 0.4442 -1.1427
Oal O 0.4442 0.82335 0.0558 -1.1427
Oal O 0.0558 0.5558 0.32335 -1.1427
Oal O 0.4442 0.9442 0.32335 -1.1427
Oal O 0.0558 0.9442 0.17665 -1.1427
Oal O 0.4442 0.5558 0.17665 -1.1427
Oal O 0.0558 0.67665 0.4442 -1.1427
Oal O 0.4442 0.67665 0.0558 -1.1427
Oal O 0.4442 0.82335 0.4442 -1.1427
Oal O 0.0558 0.82335 0.0558 -1.1427
Oal O 0.17665 0.5558 0.4442 -1.1427
Oal O 0.17665 0.9442 0.0558 -1.1427
Oal O 0.32335 0.5558 0.0558 -1.1427
Oal O 0.32335 0.9442 0.4442 -1.1427
Si Si 0 0.5937 0.18775 1.8708
Al Al 0 0.9063 0.18775 1.7906
Al Al 0 0.5937 0.31225 1.7906
Si Si 0 0.9063 0.31225 1.8708
Si Si 0.18775 0.5 0.0937 1.8708
Al Al 0.18775 0.5 0.4063 1.7906
Al Al 0.31225 0.5 0.0937 1.7906
Si Si 0.31225 0.5 0.4063 1.8708
Si Si 0.0937 0.68775 0 1.8708
Al Al 0.4063 0.68775 0 1.7906
Al Al 0.0937 0.81225 0 1.7906
Si Si 0.4063 0.81225 0 1.8708
Si Si 0.0937 0.5 0.31225 1.8708
Al Al 0.4063 0.5 0.31225 1.7906
Al Al 0.0937 0.5 0.18775 1.7906
Si Si 0.4063 0.5 0.18775 1.8708
Si Si 0 0.68775 0.4063 1.8708
Al Al 0 0.68775 0.0937 1.7906
Al Al 0 0.81225 0.4063 1.7906
Si Si 0 0.81225 0.0937 1.8708
Al Al 0.18775 0.5937 0 1.7906
Si Si 0.18775 0.9063 0 1.8708
Si Si 0.31225 0.5937 0 1.8708
Al Al 0.31225 0.9063 0 1.7906
Oal O 0.5 0.6167 0.25 -1.1427
Oal O 0.5 0.8833 0.25 -1.1427
Oal O 0.75 0.5 0.1167 -1.1427
Oal O 0.75 0.5 0.3833 -1.1427
Oal O 0.6167 0.75 0 -1.1427
Oal O 0.8833 0.75 0 -1.1427
Oal O 0.6167 0.5 0.25 -1.1427
Oal O 0.8833 0.5 0.25 -1.1427
Oal O 0.5 0.75 0.3833 -1.1427
Oal O 0.5 0.75 0.1167 -1.1427
Oal O 0.75 0.6167 0 -1.1427
Oal O 0.75 0.8833 0 -1.1427
Oal O 0.5 0.64365 0.14365 -1.1427
Oal O 0.5 0.85635 0.14365 -1.1427
Oal O 0.5 0.64365 0.35635 -1.1427
Oal O 0.5 0.85635 0.35635 -1.1427
Oal O 0.64365 0.5 0.14365 -1.1427
Oal O 0.64365 0.5 0.35635 -1.1427
Oal O 0.85635 0.5 0.14365 -1.1427
Oal O 0.85635 0.5 0.35635 -1.1427
Oal O 0.64365 0.64365 0 -1.1427
Oal O 0.85635 0.64365 0 -1.1427
Oal O 0.64365 0.85635 0 -1.1427
Oal O 0.85635 0.85635 0 -1.1427
Oal O 0.5558 0.5558 0.17665 -1.1427
Oal O 0.9442 0.9442 0.17665 -1.1427
Oal O 0.9442 0.5558 0.32335 -1.1427
Oal O 0.5558 0.9442 0.32335 -1.1427
Oal O 0.67665 0.5558 0.0558 -1.1427
Oal O 0.67665 0.9442 0.4442 -1.1427
Oal O 0.82335 0.9442 0.0558 -1.1427
Oal O 0.82335 0.5558 0.4442 -1.1427
Oal O 0.5558 0.67665 0.0558 -1.1427
Oal O 0.9442 0.67665 0.4442 -1.1427
Oal O 0.5558 0.82335 0.4442 -1.1427
Oal O 0.9442 0.82335 0.0558 -1.1427
Oal O 0.5558 0.5558 0.32335 -1.1427
Oal O 0.9442 0.9442 0.32335 -1.1427
Oal O 0.5558 0.9442 0.17665 -1.1427
Oal O 0.9442 0.5558 0.17665 -1.1427
Oal O 0.5558 0.67665 0.4442 -1.1427
Oal O 0.9442 0.67665 0.0558 -1.1427
Oal O 0.9442 0.82335 0.4442 -1.1427
Oal O 0.5558 0.82335 0.0558 -1.1427
Oal O 0.67665 0.5558 0.4442 -1.1427
Oal O 0.67665 0.9442 0.0558 -1.1427
Oal O 0.82335 0.5558 0.0558 -1.1427
Oal O 0.82335 0.9442 0.4442 -1.1427
Al Al 0.5 0.5937 0.18775 1.7906
Si Si 0.5 0.9063 0.18775 1.8708
Si Si 0.5 0.5937 0.31225 1.8708
Al Al 0.5 0.9063 0.31225 1.7906
Al Al 0.68775 0.5 0.0937 1.7906
Si Si 0.68775 0.5 0.4063 1.8708
Si Si 0.81225 0.5 0.0937 1.8708
Al Al 0.81225 0.5 0.4063 1.7906
Al Al 0.5937 0.68775 0 1.7906
Si Si 0.9063 0.68775 0 1.8708
Si Si 0.5937 0.81225 0 1.8708
Al Al 0.9063 0.81225 0 1.7906
Al Al 0.5937 0.5 0.31225 1.7906
Si Si 0.9063 0.5 0.31225 1.8708
Si Si 0.5937 0.5 0.18775 1.8708
Al Al 0.9063 0.5 0.18775 1.7906
Al Al 0.5 0.68775 0.4063 1.7906
Si Si 0.5 0.68775 0.0937 1.8708
Si Si 0.5 0.81225 0.4063 1.8708
Al Al 0.5 0.81225 0.0937 1.7906
Si Si 0.68775 0.5937 0 1.8708
Al Al 0.68775 0.9063 0 1.7906
Al Al 0.81225 0.5937 0 1.7906
Si Si 0.81225 0.9063 0 1.8708
Oal O 0 0.1167 0.75 -1.1427
Oal O 0 0.3833 0.75 -1.1427
Oal O 0.25 0 0.6167 -1.1427
Oal O 0.25 0 0.8833 -1.1427
Oal O 0.1167 0.25 0.5 -1.1427
Oal O 0.3833 0.25 0.5 -1.1427
Oal O 0.1167 0 0.75 -1.1427
Oal O 0.3833 0 0.75 -1.1427
Oal O 0 0.25 0.8833 -1.1427
Oal O 0 0.25 0.6167 -1.1427
Oal O 0.25 0.1167 0.5 -1.1427
Oal O 0.25 0.3833 0.5 -1.1427
Oal O 0 0.14365 0.64365 -1.1427
Oal O 0 0.35635 0.64365 -1.1427
Oal O 0 0.14365 0.85635 -1.1427
Oal O 0 0.35635 0.85635 -1.1427
Oal O 0.14365 0 0.64365 -1.1427
Oal O 0.14365 0 0.85635 -1.1427
Oal O 0.35635 0 0.64365 -1.1427
Oal O 0.35635 0 0.85635 -1.1427
Oal O 0.14365 0.14365 0.5 -1.1427
Oal O 0.35635 0.14365 0.5 -1.1427
Oal O 0.14365 0.35635 0.5 -1.1427
Oal O 0.35635 0.35635 0.5 -1.1427
Oal O 0.0558 0.0558 0.67665 -1.1427
Oal O 0.4442 0.4442 0.67665 -1.1427
Oal O 0.4442 0.0558 0.82335 -1.1427
Oal O 0.0558 0.4442 0.82335 -1.1427
Oal O 0.17665 0.0558 0.5558 -1.1427
Oal O 0.17665 0.4442 0.9442 -1.1427
Oal O 0.32335 0.4442 0.5558 -1.1427
Oal O 0.32335 0.0558 0.9442 -1.1427
Oal O 0.0558 0.17665 0.5558 -1.1427
Oal O 0.4442 0.17665 0.9442 -1.1427
Oal O 0.0558 0.32335 0.9442 -1.1427
Oal O 0.4442 0.32335 0.5558 -1.1427
Oal O 0.0558 0.0558 0.82335 -1.1427
Oal O 0.4442 0.4442 0.82335 -1.1427
Oal O 0.0558 0.4442 0.67665 -1.1427
Oal O 0.4442 0.0558 0.67665 -1.1427
Oal O 0.0558 0.17665 0.9442 -1.1427
Oal O 0.4442 0.17665 0.5558 -1.1427
Oal O 0.4442 0.32335 0.9442 -1.1427
Oal O 0.0558 0.32335 0.5558 -1.1427
Oal O 0.17665 0.0558 0.9442 -1.1427
Oal O 0.17665 0.4442 0.5558 -1.1427
Oal O 0.32335 0.0558 0.5558 -1.1427
Oal O 0.32335 0.4442 0.9442 -1.1427
Si Si 0 0.0937 0.68775 1.8708
Al Al 0 0.4063 0.68775 1.7906
Al Al 0 0.0937 0.81225 1.7906
Si Si 0 0.4063 0.81225 1.8708
Si Si 0.18775 0 0.5937 1.8708
Al Al 0.18775 0 0.9063 1.7906
Al Al 0.31225 0 0.5937 1.7906
Si Si 0.31225 0 0.9063 1.8708
Si Si 0.0937 0.18775 0.5 1.8708
Al Al 0.4063 0.18775 0.5 1.7906
Al Al 0.0937 0.31225 0.5 1.7906
Si Si 0.4063 0.31225 0.5 1.8708
Si Si 0.0937 0 0.81225 1.8708
Al Al 0.4063 0 0.81225 1.7906
Al Al 0.0937 0 0.68775 1.7906
Si Si 0.4063 0 0.68775 1.8708
Si Si 0 0.18775 0.9063 1.8708
Al Al 0 0.18775 0.5937 1.7906
Al Al 0 0.31225 0.9063 1.7906
Si Si 0 0.31225 0.5937 1.8708
Al Al 0.18775 0.0937 0.5 1.7906
Si Si 0.18775 0.4063 0.5 1.8708
Si Si 0.31225 0.0937 0.5 1.8708
Al Al 0.31225 0.4063 0.5 1.7906
Oal O 0.5 0.1167 0.75 -1.1427
Oal O 0.5 0.3833 0.75 -1.1427
Oal O 0.75 0 0.6167 -1.1427
Oal O 0.75 0 0.8833 -1.1427
Oal O 0.6167 0.25 0.5 -1.1427
Oal O 0.8833 0.25 0.5 -1.1427
Oal O 0.6167 0 0.75 -1.1427
Oal O 0.8833 0 0.75 -1.1427
Oal O 0.5 0.25 0.8833 -1.1427
Oal O 0.5 0.25 0.6167 -1.1427
Oal O 0.75 0.1167 0.5 -1.1427
Oal O 0.75 0.3833 0.5 -1.1427
Oal O 0.5 0.14365 0.64365 -1.1427
Oal O 0.5 0.35635 0.64365 -1.1427
Oal O 0.5 0.14365 0.85635 -1.1427
Oal O 0.5 0.35635 0.85635 -1.1427
Oal O 0.64365 0 0.64365 -1.1427
Oal O 0.64365 0 0.85635 -1.1427
Oal O 0.85635 0 0.64365 -1.1427
Oal O 0.85635 0 0.85635 -1.1427
Oal O 0.64365 0.14365 0.5 -1.1427
Oal O 0.85635 0.14365 0.5 -1.1427
Oal O 0.64365 0.35635 0.5 -1.1427
Oal O 0.85635 0.35635 0.5 -1.1427
Oal O 0.5558 0.0558 0.67665 -1.1427
Oal O 0.9442 0.4442 0.67665 -1.1427
Oal O 0.9442 0.0558 0.82335 -1.1427
Oal O 0.5558 0.4442 0.82335 -1.1427
Oal O 0.67665 0.0558 0.5558 -1.1427
Oal O 0.67665 0.4442 0.9442 -1.1427
Oal O 0.82335 0.4442 0.5558 -1.1427
Oal O 0.82335 0.0558 0.9442 -1.1427
Oal O 0.5558 0.17665 0.5558 -1.1427
Oal O 0.9442 0.17665 0.9442 -1.1427
Oal O 0.5558 0.32335 0.9442 -1.1427
Oal O 0.9442 0.32335 0.5558 -1.1427
Oal O 0.5558 0.0558 0.82335 -1.1427
Oal O 0.9442 0.4442 0.82335 -1.1427
Oal O 0.5558 0.4442 0.67665 -1.1427
Oal O 0.9442 0.0558 0.67665 -1.1427
Oal O 0.5558 0.17665 0.9442 -1.1427
Oal O 0.9442 0.17665 0.5558 -1.1427
Oal O 0.9442 0.32335 0.9442 -1.1427
Oal O 0.5558 0.32335 0.5558 -1.1427
Oal O 0.67665 0.0558 0.9442 -1.1427
Oal O 0.67665 0.4442 0.5558 -1.1427
Oal O 0.82335 0.0558 0.5558 -1.1427
Oal O 0.82335 0.4442 0.9442 -1.1427
Al Al 0.5 0.0937 0.68775 1.7906
Si Si 0.5 0.4063 0.68775 1.8708
Si Si 0.5 0.0937 0.81225 1.8708
Al Al 0.5 0.4063 0.81225 1.7906
Al Al 0.68775 0 0.5937 1.7906
Si Si 0.68775 0 0.9063 1.8708
Si Si 0.81225 0 0.5937 1.8708
Al Al 0.81225 0 0.9063 1.7906
Al Al 0.5937 0.18775 0.5 1.7906
Si Si 0.9063 0.18775 0.5 1.8708
Si Si 0.5937 0.31225 0.5 1.8708
Al Al 0.9063 0.31225 0.5 1.7906
Al Al 0.5937 0 0.81225 1.7906
Si Si 0.9063 0 0.81225 1.8708
Si Si 0.5937 0 0.68775 1.8708
Al Al 0.9063 0 0.68775 1.7906
Al Al 0.5 0.18775 0.9063 1.7906
Si Si 0.5 0.18775 0.5937 1.8708
Si Si 0.5 0.31225 0.9063 1.8708
Al Al 0.5 0.31225 0.5937 1.7906
Si Si 0.68775 0.0937 0.5 1.8708
Al Al 0.68775 0.4063 0.5 1.7906
Al Al 0.81225 0.0937 0.5 1.7906
Si Si 0.81225 0.4063 0.5 1.8708
Oal O 0 0.6167 0.75 -1.1427
Oal O 0 0.8833 0.75 -1.1427
Oal O 0.25 0.5 0.6167 -1.1427
Oal O 0.25 0.5 0.8833 -1.1427
Oal O 0.1167 0.75 0.5 -1.1427
Oal O 0.3833 0.75 0.5 -1.1427
Oal O 0.1167 0.5 0.75 -1.1427
Oal O 0.3833 0.5 0.75 -1.1427
Oal O 0 0.75 0.8833 -1.1427
Oal O 0 0.75 0.6167 -1.1427
Oal O 0.25 0.6167 0.5 -1.1427
Oal O 0.25 0.8833 0.5 -1.1427
Oal O 0 0.64365 0.64365 -1.1427
Oal O 0 0.85635 0.64365 -1.1427
Oal O 0 0.64365 0.85635 -1.1427
Oal O 0 0.85635 0.85635 -1.1427
Oal O 0.14365 0.5 0.64365 -1.1427
Oal O 0.14365 0.5 0.85635 -1.1427
Oal O 0.35635 0.5 0.64365 -1.1427
Oal O 0.35635 0.5 0.85635 -1.1427
Oal O 0.14365 0.64365 0.5 -1.1427
Oal O 0.35635 0.64365 0.5 -1.1427
Oal O 0.14365 0.85635 0.5 -1.1427
Oal O 0.35635 0.85635 0.5 -1.1427
Oal O 0.0558 0.5558 0.67665 -1.1427
Oal O 0.4442 0.9442 0.67665 -1.1427
Oal O 0.4442 0.5558 0.82335 -1.1427
Oal O 0.0558 0.9442 0.82335 -1.1427
Oal O 0.17665 0.5558 0.5558 -1.1427
Oal O 0.17665 0.9442 0.9442 -1.1427
Oal O 0.32335 0.9442 0.5558 -1.1427
Oal O 0.32335 0.5558 0.9442 -1.1427
Oal O 0.0558 0.67665 0.5558 -1.1427
Oal O 0.4442 0.67665 0.9442 -1.1427
Oal O 0.0558 0.82335 0.9442 -1.1427
Oal O 0.4442 0.82335 0.5558 -1.1427
Oal O 0.0558 0.5558 0.82335 -1.1427
Oal O 0.4442 0.9442 0.82335 -1.1427
Oal O 0.0558 0.9442 0.67665 -1.1427
Oal O 0.4442 0.5558 0.67665 -1.1427
Oal O 0.0558 0.67665 0.9442 -1.1427
Oal O 0.4442 0.67665 0.5558 -1.1427
Oal O 0.4442 0.82335 0.9442 -1.1427
Oal O 0.0558 0.82335 0.5558 -1.1427
Oal O 0.17665 0.5558 0.9442 -1.1427
Oal O 0.17665 0.9442 0.5558 -1.1427
Oal O 0.32335 0.5558 0.5558 -1.1427
Oal O 0.32335 0.9442 0.9442 -1.1427
Al Al 0 0.5937 0.68775 1.7906
Si Si 0 0.9063 0.68775 1.8708
Si Si 0 0.5937 0.81225 1.8708
Al Al 0 0.9063 0.81225 1.7906
Al Al 0.18775 0.5 0.5937 1.7906
Si Si 0.18775 0.5 0.9063 1.8708
Si Si 0.31225 0.5 0.5937 1.8708
Al Al 0.31225 0.5 0.9063 1.7906
Al Al 0.0937 0.68775 0.5 1.7906
Si Si 0.4063 0.68775 0.5 1.8708
Si Si 0.0937 0.81225 0.5 1.8708
Al Al 0.4063 0.81225 0.5 1.7906
Al Al 0.0937 0.5 0.81225 1.7906
Si Si 0.4063 0.5 0.81225 1.8708
Si Si 0.0937 0.5 0.68775 1.8708
Al Al 0.4063 0.5 0.68775 1.7906
Al Al 0 0.68775 0.9063 1.7906
Si Si 0 0.68775 0.5937 1.8708
Si Si 0 0.81225 0.9063 1.8708
Al Al 0 0.81225 0.5937 1.7906
Si Si 0.18775 0.5937 0.5 1.8708
Al Al 0.18775 0.9063 0.5 1.7906
Al Al 0.31225 0.5937 0.5 1.7906
Si Si 0.31225 0.9063 0.5 1.8708
Oal O 0.5 0.6167 0.75 -1.1427
Oal O 0.5 0.8833 0.75 -1.1427
Oal O 0.75 0.5 0.6167 -1.1427
Oal O 0.75 0.5 0.8833 -1.1427
Oal O 0.6167 0.75 0.5 -1.1427
Oal O 0.8833 0.75 0.5 -1.1427
Oal O 0.6167 0.5 0.75 -1.1427
Oal O 0.8833 0.5 0.75 -1.1427
Oal O 0.5 0.75 0.8833 -1.1427
Oal O 0.5 0.75 0.6167 -1.1427
Oal O 0.75 0.6167 0.5 -1.1427
Oal O 0.75 0.8833 0.5 -1.1427
Oal O 0.5 0.64365 0.64365 -1.1427
Oal O 0.5 0.85635 0.64365 -1.1427
Oal O 0.5 0.64365 0.85635 -1.1427
Oal O 0.5 0.85635 0.85635 -1.1427
Oal O 0.64365 0.5 0.64365 -1.1427
Oal O 0.64365 0.5 0.85635 -1.1427
Oal O 0.85635 0.5 0.64365 -1.1427
Oal O 0.85635 0.5 0.85635 -1.1427
Oal O 0.64365 0.64365 0.5 -1.1427
Oal O 0.85635 0.64365 0.5 -1.1427
Oal O 0.64365 0.85635 0.5 -1.1427
Oal O 0.85635 0.85635 0.5 -1.1427
Oal O 0.5558 0.5558 0.67665 -1.1427
Oal O 0.9442 0.9442 0.67665 -1.1427
Oal O 0.9442 0.5558 0.82335 -1.1427
Oal O 0.5558 0.9442 0.82335 -1.1427
Oal O 0.67665 0.5558 0.5558 -1.1427
Oal O 0.67665 0.9442 0.9442 -1.1427
Oal O 0.82335 0.9442 0.5558 -1.1427
Oal O 0.82335 0.5558 0.9442 -1.1427
Oal O 0.5558 0.67665 0.5558 -1.1427
Oal O 0.9442 0.67665 0.9442 -1.1427
Oal O 0.5558 0.82335 0.9442 -1.1427
Oal O 0.9442 0.82335 0.5558 -1.1427
Oal O 0.5558 0.5558 0.82335 -1.1427
Oal O 0.9442 0.9442 0.82335 -1.1427
Oal O 0.5558 0.9442 0.67665 -1.1427
Oal O 0.9442 0.5558 0.67665 -1.1427
Oal O 0.5558 0.67665 0.9442 -1.1427
Oal O 0.9442 0.67665 0.5558 -1.1427
Oal O 0.9442 0.82335 0.9442 -1.1427
Oal O 0.5558 0.82335 0.5558 -1.1427
Oal O 0.67665 0.5558 0.9442 -1.1427
Oal O 0.67665 0.9442 0.5558 -1.1427
Oal O 0.82335 0.5558 0.5558 -1.1427
Oal O 0.82335 0.9442 0.9442 -1.1427
Si Si 0.5 0.5937 0.68775 1.8708
Al Al 0.5 0.9063 0.68775 1.7906
Al Al 0.5 0.5937 0.81225 1.7906
Si Si 0.5 0.9063 0.81225 1.8708
Si Si 0.68775 0.5 0.5937 1.8708
Al Al 0.68775 0.5 0.9063 1.7906
Al Al 0.81225 0.5 0.5937 1.7906
Si Si 0.81225 0.5 0.9063 1.8708
Si Si 0.5937 0.68775 0.5 1.8708
Al Al 0.9063 0.68775 0.5 1.7906
Al Al 0.5937 0.81225 0.5 1.7906
Si Si 0.9063 0.81225 0.5 1.8708
Si Si 0.5937 0.5 0.81225 1.8708
Al Al 0.9063 0.5 0.81225 1.7906
Al Al 0.5937 0.5 0.68775 1.7906
Si Si 0.9063 0.5 0.68775 1.8708
Si Si 0.5 0.68775 0.9063 1.8708
Al Al 0.5 0.68775 0.5937 1.7906
Al Al 0.5 0.81225 0.9063 1.7906
Si Si 0.5 0.81225 0.5937 1.8708
Al Al 0.68775 0.5937 0.5 1.7906
Si Si 0.68775 0.9063 0.5 1.8708
Si Si 0.81225 0.5937 0.5 1.8708
Al Al 0.81225 0.9063 0.5 1.7906

